Version 4.1
SHEET 1 10916 2200
WIRE 5408 -3568 3680 -3568
WIRE 3680 -3376 3680 -3568
WIRE 5408 -3376 5408 -3568
WIRE 5408 -3376 3680 -3376
WIRE 7056 -3248 1968 -3248
WIRE 1968 -1728 1968 -3248
WIRE 7056 -1728 7056 -3248
WIRE 7056 -1728 1968 -1728
WIRE -240 -1440 -1392 -1440
WIRE 2880 -1440 -192 -1440
WIRE 4608 -1440 2944 -1440
WIRE 6400 -1440 4656 -1440
WIRE 10800 -1440 6448 -1440
WIRE 1008 -1312 912 -1312
WIRE 1104 -1312 1008 -1312
WIRE 1808 -1312 1712 -1312
WIRE 1904 -1312 1808 -1312
WIRE 256 -1296 160 -1296
WIRE 352 -1296 256 -1296
WIRE 1008 -1216 912 -1216
WIRE 1104 -1216 1008 -1216
WIRE 1808 -1216 1712 -1216
WIRE 1904 -1216 1808 -1216
WIRE 256 -1200 160 -1200
WIRE 352 -1200 256 -1200
WIRE 1008 -1136 1008 -1216
WIRE 1008 -1136 912 -1136
WIRE 1104 -1136 1008 -1136
WIRE 1808 -1136 1808 -1216
WIRE 1808 -1136 1712 -1136
WIRE 1904 -1136 1808 -1136
WIRE 256 -1120 256 -1200
WIRE 256 -1120 160 -1120
WIRE 352 -1120 256 -1120
WIRE 3920 -1088 3920 -1120
WIRE 1008 -1040 912 -1040
WIRE 1104 -1040 1008 -1040
WIRE 1808 -1040 1712 -1040
WIRE 1904 -1040 1808 -1040
WIRE 256 -1024 160 -1024
WIRE 352 -1024 256 -1024
WIRE 1008 -976 1008 -1040
WIRE 1168 -976 1008 -976
WIRE 1280 -976 1280 -1040
WIRE 1280 -976 1168 -976
WIRE 1328 -976 1328 -1024
WIRE 1456 -976 1328 -976
WIRE 1808 -976 1808 -1040
WIRE 2080 -976 2080 -1040
WIRE 2080 -976 1808 -976
WIRE 2128 -976 2128 -1024
WIRE 2256 -976 2128 -976
WIRE 7760 -976 7600 -976
WIRE 7920 -976 7760 -976
WIRE 8816 -976 8656 -976
WIRE 8976 -976 8816 -976
WIRE 9888 -976 9728 -976
WIRE 10048 -976 9888 -976
WIRE 256 -960 256 -1024
WIRE 400 -960 256 -960
WIRE 528 -960 528 -1024
WIRE 528 -960 400 -960
WIRE 576 -960 576 -1008
WIRE 704 -960 576 -960
WIRE 1328 -944 1328 -976
WIRE 2128 -944 2128 -976
WIRE 576 -928 576 -960
WIRE 1008 -928 1008 -976
WIRE 1008 -928 912 -928
WIRE 1104 -928 1008 -928
WIRE 1808 -928 1808 -976
WIRE 1808 -928 1712 -928
WIRE 1904 -928 1808 -928
WIRE 3920 -928 3920 -992
WIRE 4128 -928 4128 -992
WIRE 4128 -928 3920 -928
WIRE 4176 -928 4176 -976
WIRE 4304 -928 4176 -928
WIRE 256 -912 256 -960
WIRE 256 -912 160 -912
WIRE 352 -912 256 -912
WIRE 3920 -896 3920 -928
WIRE 3920 -896 3840 -896
WIRE 4032 -896 3920 -896
WIRE 4176 -896 4176 -928
WIRE 7760 -880 7600 -880
WIRE 7920 -880 7760 -880
WIRE 8816 -880 8656 -880
WIRE 8976 -880 8816 -880
WIRE 9888 -880 9728 -880
WIRE 10048 -880 9888 -880
WIRE 1280 -864 1280 -976
WIRE 2080 -864 2080 -976
WIRE 528 -848 528 -960
WIRE 3248 -848 3136 -848
WIRE 3344 -848 3248 -848
WIRE 7760 -848 7760 -880
WIRE 7760 -848 7600 -848
WIRE 7920 -848 7760 -848
WIRE 8816 -848 8816 -880
WIRE 8816 -848 8656 -848
WIRE 8976 -848 8816 -848
WIRE 9888 -848 9888 -880
WIRE 9888 -848 9728 -848
WIRE 10048 -848 9888 -848
WIRE 4128 -816 4128 -928
WIRE 5792 -816 5696 -816
WIRE 5888 -816 5792 -816
WIRE 3920 -800 3840 -800
WIRE 4032 -800 3920 -800
WIRE 912 -784 912 -832
WIRE 1104 -784 1104 -832
WIRE 1712 -784 1712 -832
WIRE 1904 -784 1904 -832
WIRE 160 -768 160 -816
WIRE 352 -768 352 -816
WIRE 6848 -768 6688 -768
WIRE 7008 -768 6848 -768
WIRE 3248 -752 3136 -752
WIRE 3344 -752 3248 -752
WIRE 7760 -752 7600 -752
WIRE 7920 -752 7760 -752
WIRE 8816 -752 8656 -752
WIRE 8976 -752 8816 -752
WIRE 9888 -752 9728 -752
WIRE 10048 -752 9888 -752
WIRE 5792 -720 5696 -720
WIRE 5888 -720 5792 -720
WIRE 7760 -720 7760 -752
WIRE 7760 -720 7600 -720
WIRE 7920 -720 7760 -720
WIRE 8816 -720 8816 -752
WIRE 8816 -720 8656 -720
WIRE 8976 -720 8816 -720
WIRE 9888 -720 9888 -752
WIRE 9888 -720 9728 -720
WIRE 10048 -720 9888 -720
WIRE 1008 -688 912 -688
WIRE 1104 -688 1008 -688
WIRE 1808 -688 1712 -688
WIRE 1904 -688 1808 -688
WIRE 3248 -688 3248 -752
WIRE 3456 -688 3456 -752
WIRE 3456 -688 3248 -688
WIRE 3504 -688 3504 -736
WIRE 3680 -688 3504 -688
WIRE 256 -672 160 -672
WIRE 352 -672 256 -672
WIRE 6848 -672 6688 -672
WIRE 7008 -672 6848 -672
WIRE 3248 -656 3248 -688
WIRE 3504 -656 3504 -688
WIRE 5792 -640 5792 -720
WIRE 5792 -640 5696 -640
WIRE 5888 -640 5792 -640
WIRE 4896 -624 4784 -624
WIRE 4992 -624 4896 -624
WIRE 7760 -624 7600 -624
WIRE 7920 -624 7760 -624
WIRE 8816 -624 8656 -624
WIRE 8976 -624 8816 -624
WIRE 9888 -624 9728 -624
WIRE 10048 -624 9888 -624
WIRE 6848 -608 6848 -672
WIRE 7104 -608 7104 -672
WIRE 7104 -608 6848 -608
WIRE 7152 -608 7152 -656
WIRE 7280 -608 7152 -608
WIRE 3920 -592 3808 -592
WIRE 4016 -592 3920 -592
WIRE 7760 -592 7760 -624
WIRE 7760 -592 7600 -592
WIRE 7920 -592 7760 -592
WIRE 8288 -592 8272 -592
WIRE 8816 -592 8816 -624
WIRE 8816 -592 8656 -592
WIRE 8976 -592 8816 -592
WIRE 9344 -592 9328 -592
WIRE 9888 -592 9888 -624
WIRE 9888 -592 9728 -592
WIRE 10048 -592 9888 -592
WIRE 10416 -592 10400 -592
WIRE 3456 -576 3456 -688
WIRE 6848 -576 6848 -608
WIRE 7152 -576 7152 -608
WIRE 5792 -544 5696 -544
WIRE 5888 -544 5792 -544
WIRE 8288 -544 8288 -592
WIRE 8288 -544 8272 -544
WIRE 9344 -544 9344 -592
WIRE 9344 -544 9328 -544
WIRE 10416 -544 10416 -592
WIRE 10416 -544 10400 -544
WIRE 720 -528 608 -528
WIRE 816 -528 720 -528
WIRE 1424 -528 1312 -528
WIRE 1520 -528 1424 -528
WIRE 4896 -528 4784 -528
WIRE 4992 -528 4896 -528
WIRE 112 -512 0 -512
WIRE 208 -512 112 -512
WIRE 3248 -512 3248 -560
WIRE 3920 -496 3808 -496
WIRE 4016 -496 3920 -496
WIRE 7104 -496 7104 -608
WIRE 7760 -496 7600 -496
WIRE 7920 -496 7760 -496
WIRE 8816 -496 8656 -496
WIRE 8976 -496 8816 -496
WIRE 9888 -496 9728 -496
WIRE 10048 -496 9888 -496
WIRE 5792 -480 5792 -544
WIRE 6064 -480 6064 -544
WIRE 6064 -480 5792 -480
WIRE 6112 -480 6112 -528
WIRE 6240 -480 6112 -480
WIRE 4896 -464 4896 -528
WIRE 5008 -464 4896 -464
WIRE 5104 -464 5104 -528
WIRE 5104 -464 5008 -464
WIRE 5152 -464 5152 -512
WIRE 5328 -464 5152 -464
WIRE 7760 -464 7760 -496
WIRE 8224 -464 8224 -512
WIRE 8224 -464 7760 -464
WIRE 8272 -464 8272 -496
WIRE 8384 -464 8272 -464
WIRE 8816 -464 8816 -496
WIRE 9280 -464 9280 -512
WIRE 9280 -464 8816 -464
WIRE 9328 -464 9328 -496
WIRE 9440 -464 9328 -464
WIRE 9888 -464 9888 -496
WIRE 10352 -464 10352 -512
WIRE 10352 -464 9888 -464
WIRE 10400 -464 10400 -496
WIRE 10512 -464 10400 -464
WIRE 6112 -448 6112 -480
WIRE 8272 -448 8272 -464
WIRE 9328 -448 9328 -464
WIRE 10400 -448 10400 -464
WIRE 720 -432 608 -432
WIRE 816 -432 720 -432
WIRE 1424 -432 1312 -432
WIRE 1520 -432 1424 -432
WIRE 2128 -432 2128 -464
WIRE 3920 -432 3920 -496
WIRE 4128 -432 4128 -496
WIRE 4128 -432 3920 -432
WIRE 4176 -432 4176 -480
WIRE 4352 -432 4176 -432
WIRE 4896 -432 4896 -464
WIRE 5152 -432 5152 -464
WIRE 5792 -432 5792 -480
WIRE 5792 -432 5696 -432
WIRE 5888 -432 5792 -432
WIRE 7664 -432 7472 -432
WIRE 7760 -432 7760 -464
WIRE 7760 -432 7664 -432
WIRE 7872 -432 7760 -432
WIRE 8064 -432 7872 -432
WIRE 8720 -432 8528 -432
WIRE 8816 -432 8816 -464
WIRE 8816 -432 8720 -432
WIRE 8928 -432 8816 -432
WIRE 9120 -432 8928 -432
WIRE 9792 -432 9600 -432
WIRE 9888 -432 9888 -464
WIRE 9888 -432 9792 -432
WIRE 10000 -432 9888 -432
WIRE 10192 -432 10000 -432
WIRE 112 -416 0 -416
WIRE 208 -416 112 -416
WIRE 6848 -416 6848 -480
WIRE 3920 -400 3920 -432
WIRE 4176 -400 4176 -432
WIRE 720 -368 720 -432
WIRE 832 -368 720 -368
WIRE 928 -368 928 -432
WIRE 928 -368 832 -368
WIRE 976 -368 976 -416
WIRE 1104 -368 976 -368
WIRE 1424 -368 1424 -432
WIRE 1632 -368 1632 -432
WIRE 1632 -368 1424 -368
WIRE 1680 -368 1680 -416
WIRE 1808 -368 1680 -368
WIRE 6064 -368 6064 -480
WIRE 8224 -368 8224 -464
WIRE 8272 -368 8272 -400
WIRE 9280 -368 9280 -464
WIRE 9328 -368 9328 -400
WIRE 10352 -368 10352 -464
WIRE 10400 -368 10400 -400
WIRE 112 -352 112 -416
WIRE 256 -352 112 -352
WIRE 320 -352 320 -416
WIRE 320 -352 256 -352
WIRE 368 -352 368 -400
WIRE 416 -352 368 -352
WIRE 496 -352 416 -352
WIRE 5104 -352 5104 -464
WIRE 720 -336 720 -368
WIRE 976 -336 976 -368
WIRE 1424 -336 1424 -368
WIRE 1680 -336 1680 -368
WIRE 112 -320 112 -352
WIRE 368 -320 368 -352
WIRE 4128 -320 4128 -432
WIRE 7472 -304 7472 -336
WIRE 7664 -304 7664 -336
WIRE 7872 -304 7872 -336
WIRE 8064 -304 8064 -336
WIRE 8528 -304 8528 -336
WIRE 8720 -304 8720 -336
WIRE 8928 -304 8928 -336
WIRE 9120 -304 9120 -336
WIRE 9600 -304 9600 -336
WIRE 9792 -304 9792 -336
WIRE 10000 -304 10000 -336
WIRE 10192 -304 10192 -336
WIRE 4896 -288 4896 -336
WIRE 5696 -288 5696 -336
WIRE 5888 -288 5888 -336
WIRE 2128 -272 2128 -336
WIRE 2336 -272 2336 -336
WIRE 2336 -272 2128 -272
WIRE 2384 -272 2384 -320
WIRE 2512 -272 2384 -272
WIRE 928 -256 928 -368
WIRE 1632 -256 1632 -368
WIRE 3920 -256 3920 -304
WIRE 6848 -256 6848 -320
WIRE 320 -240 320 -352
WIRE 2128 -240 2128 -272
WIRE 2128 -240 2048 -240
WIRE 2240 -240 2128 -240
WIRE 2384 -240 2384 -272
WIRE 720 -192 720 -240
WIRE 1424 -192 1424 -240
WIRE 5792 -192 5696 -192
WIRE 5888 -192 5792 -192
WIRE 112 -176 112 -224
WIRE 7472 -176 7472 -208
WIRE 7664 -176 7664 -208
WIRE 7872 -176 7872 -208
WIRE 8064 -176 8064 -208
WIRE 8528 -176 8528 -208
WIRE 8720 -176 8720 -208
WIRE 8928 -176 8928 -208
WIRE 9120 -176 9120 -208
WIRE 9600 -176 9600 -208
WIRE 9792 -176 9792 -208
WIRE 10000 -176 10000 -208
WIRE 10192 -176 10192 -208
WIRE 2336 -160 2336 -272
WIRE 2128 -144 2048 -144
WIRE 2240 -144 2128 -144
WIRE 7664 -80 7472 -80
WIRE 7760 -80 7664 -80
WIRE 7872 -80 7760 -80
WIRE 8064 -80 7872 -80
WIRE 8720 -80 8528 -80
WIRE 8816 -80 8720 -80
WIRE 8928 -80 8816 -80
WIRE 9120 -80 8928 -80
WIRE 9792 -80 9600 -80
WIRE 9888 -80 9792 -80
WIRE 10000 -80 9888 -80
WIRE 10192 -80 10000 -80
WIRE -192 -48 -192 -1440
WIRE 2880 -48 2880 -1440
WIRE 2880 -48 -192 -48
WIRE 5808 -48 5712 -48
WIRE 5904 -48 5808 -48
WIRE 2880 32 -192 32
WIRE 4912 48 4800 48
WIRE 5008 48 4912 48
WIRE 5808 48 5712 48
WIRE 5904 48 5808 48
WIRE 5808 128 5808 48
WIRE 5808 128 5712 128
WIRE 5904 128 5808 128
WIRE 4912 144 4800 144
WIRE 5008 144 4912 144
WIRE 848 160 736 160
WIRE 944 160 848 160
WIRE 1632 160 1520 160
WIRE 1728 160 1632 160
WIRE 112 176 0 176
WIRE 208 176 112 176
WIRE 3264 192 3152 192
WIRE 3360 192 3264 192
WIRE 4912 208 4912 144
WIRE 5024 208 4912 208
WIRE 5120 208 5120 144
WIRE 5120 208 5024 208
WIRE 5168 208 5168 160
WIRE 5344 208 5168 208
WIRE 3888 224 3888 192
WIRE 5808 224 5712 224
WIRE 5904 224 5808 224
WIRE 4912 240 4912 208
WIRE 5168 240 5168 208
WIRE 848 256 736 256
WIRE 944 256 848 256
WIRE 1632 256 1520 256
WIRE 1728 256 1632 256
WIRE 112 272 0 272
WIRE 208 272 112 272
WIRE 2272 288 2272 256
WIRE 3264 288 3152 288
WIRE 3360 288 3264 288
WIRE 5808 288 5808 224
WIRE 6080 288 6080 224
WIRE 6080 288 5808 288
WIRE 6128 288 6128 240
WIRE 6256 288 6128 288
WIRE -1152 304 -1152 240
WIRE -1104 304 -1104 256
WIRE -960 304 -960 240
WIRE -912 304 -912 256
WIRE -784 304 -784 240
WIRE -736 304 -736 256
WIRE -592 304 -592 240
WIRE -544 304 -544 256
WIRE 848 320 848 256
WIRE 1056 320 1056 256
WIRE 1056 320 848 320
WIRE 1104 320 1104 272
WIRE 1232 320 1104 320
WIRE 1632 320 1632 256
WIRE 1840 320 1840 256
WIRE 1840 320 1632 320
WIRE 1888 320 1888 272
WIRE 2016 320 1888 320
WIRE 5120 320 5120 208
WIRE 6128 320 6128 288
WIRE -1104 336 -1104 304
WIRE -912 336 -912 304
WIRE -736 336 -736 304
WIRE -544 336 -544 304
WIRE 112 336 112 272
WIRE 240 336 112 336
WIRE 320 336 320 272
WIRE 320 336 240 336
WIRE 368 336 368 288
WIRE 496 336 368 336
WIRE 5808 336 5808 288
WIRE 5808 336 5712 336
WIRE 5904 336 5808 336
WIRE 848 352 848 320
WIRE 1104 352 1104 320
WIRE 1632 352 1632 320
WIRE 1888 352 1888 320
WIRE 3264 352 3264 288
WIRE 3472 352 3472 288
WIRE 3472 352 3264 352
WIRE 3520 352 3520 304
WIRE 3696 352 3520 352
WIRE 112 368 112 336
WIRE 368 368 368 336
WIRE 3264 384 3264 352
WIRE 3520 384 3520 352
WIRE 3888 384 3888 320
WIRE 4096 384 4096 320
WIRE 4096 384 3888 384
WIRE 4144 384 4144 336
WIRE 4272 384 4144 384
WIRE 4912 384 4912 336
WIRE 6080 400 6080 288
WIRE -1152 416 -1152 304
WIRE -960 416 -960 304
WIRE -784 416 -784 304
WIRE -592 416 -592 304
WIRE 3888 416 3888 384
WIRE 3888 416 3808 416
WIRE 4000 416 3888 416
WIRE 4144 416 4144 384
WIRE 1056 432 1056 320
WIRE 1840 432 1840 320
WIRE 320 448 320 336
WIRE 2272 448 2272 384
WIRE 2480 448 2480 384
WIRE 2480 448 2272 448
WIRE 2528 448 2528 400
WIRE 2656 448 2528 448
WIRE 3472 464 3472 352
WIRE 2272 480 2272 448
WIRE 2272 480 2192 480
WIRE 2384 480 2272 480
WIRE 2528 480 2528 448
WIRE 5712 480 5712 432
WIRE 5904 480 5904 432
WIRE 848 496 848 448
WIRE 1632 496 1632 448
WIRE 4096 496 4096 384
WIRE 7280 496 7280 -608
WIRE 8384 496 8384 -464
WIRE 9440 496 9440 -464
WIRE 10512 496 10512 -464
WIRE 112 512 112 464
WIRE 3888 512 3808 512
WIRE 4000 512 3888 512
WIRE 3264 528 3264 480
WIRE 2480 560 2480 448
WIRE 2272 576 2192 576
WIRE 2384 576 2272 576
WIRE 5808 576 5712 576
WIRE 5904 576 5808 576
WIRE 1248 704 1152 704
WIRE 1344 704 1248 704
WIRE -976 720 -976 656
WIRE -928 720 -928 672
WIRE -784 720 -784 656
WIRE -736 720 -736 672
WIRE 4928 720 4816 720
WIRE 5024 720 4928 720
WIRE -928 752 -928 720
WIRE -736 752 -736 720
WIRE 3968 784 3856 784
WIRE 4064 784 3968 784
WIRE 1248 800 1152 800
WIRE 1344 800 1248 800
WIRE 3360 800 3248 800
WIRE 3456 800 3360 800
WIRE 4928 816 4816 816
WIRE 5024 816 4928 816
WIRE -976 832 -976 720
WIRE -784 832 -784 720
WIRE 5824 848 5712 848
WIRE 5920 848 5824 848
WIRE 1248 880 1248 800
WIRE 1248 880 1152 880
WIRE 1344 880 1248 880
WIRE 3968 880 3856 880
WIRE 4064 880 3968 880
WIRE 4928 880 4928 816
WIRE 5040 880 4928 880
WIRE 5136 880 5136 816
WIRE 5136 880 5040 880
WIRE 5184 880 5184 832
WIRE 5360 880 5184 880
WIRE 3360 896 3248 896
WIRE 3456 896 3360 896
WIRE 4928 912 4928 880
WIRE 5184 912 5184 880
WIRE 3968 944 3968 880
WIRE 4176 944 4176 880
WIRE 4176 944 3968 944
WIRE 4224 944 4224 896
WIRE 4352 944 4224 944
WIRE 5824 944 5712 944
WIRE 5920 944 5824 944
WIRE 3360 960 3360 896
WIRE 3568 960 3568 896
WIRE 3568 960 3360 960
WIRE 3616 960 3616 912
WIRE 3744 960 3616 960
WIRE 1248 976 1152 976
WIRE 1344 976 1248 976
WIRE 3968 976 3968 944
WIRE 4224 976 4224 944
WIRE 3360 992 3360 960
WIRE 3616 992 3616 960
WIRE 5136 992 5136 880
WIRE 5824 1008 5824 944
WIRE 6032 1008 6032 944
WIRE 6032 1008 5824 1008
WIRE 6080 1008 6080 960
WIRE 6256 1008 6080 1008
WIRE 1248 1040 1248 976
WIRE 1520 1040 1520 976
WIRE 1520 1040 1248 1040
WIRE 1568 1040 1568 992
WIRE 1696 1040 1568 1040
WIRE 5824 1040 5824 1008
WIRE 6080 1040 6080 1008
WIRE 4176 1056 4176 944
WIRE 4928 1056 4928 1008
WIRE 1568 1072 1568 1040
WIRE 3568 1072 3568 960
WIRE 1248 1088 1248 1040
WIRE 1248 1088 1152 1088
WIRE 1344 1088 1248 1088
WIRE 3968 1120 3968 1072
WIRE 6032 1120 6032 1008
WIRE 3360 1136 3360 1088
WIRE 1520 1152 1520 1040
WIRE 5824 1184 5824 1136
WIRE 1152 1232 1152 1184
WIRE 1344 1232 1344 1184
WIRE 1248 1328 1152 1328
WIRE 1344 1328 1248 1328
WIRE -1392 1424 -1392 -1440
WIRE -240 1424 -240 -1440
WIRE -240 1424 -1392 1424
WIRE -192 1424 -192 32
WIRE 2880 1424 2880 32
WIRE 2880 1424 -192 1424
WIRE 2944 1424 2944 -1440
WIRE 4608 1424 4608 -1440
WIRE 4608 1424 2944 1424
WIRE 4656 1424 4656 -1440
WIRE 6400 1424 6400 -1440
WIRE 6400 1424 4656 1424
WIRE 6448 1424 6448 -1440
WIRE 10800 1424 10800 -1440
WIRE 10800 1424 6448 1424
FLAG 256 -672 0
FLAG 352 -720 0
FLAG 352 -864 0
FLAG 160 -864 0
FLAG 160 -720 0
FLAG 256 -1296 Vdd
IOPIN 256 -1296 In
FLAG 352 -1248 Vdd
IOPIN 352 -1248 In
FLAG 304 -1216 b0
IOPIN 304 -1216 In
FLAG 160 -1248 Vdd
IOPIN 160 -1248 In
FLAG 112 -1216 a0B
IOPIN 112 -1216 In
FLAG 112 -1040 a0
IOPIN 112 -1040 In
FLAG 304 -1040 b0B
IOPIN 304 -1040 In
FLAG 352 -1072 Vdd
IOPIN 352 -1072 In
FLAG 112 -832 a0B
IOPIN 112 -832 In
FLAG 112 -688 b0
IOPIN 112 -688 In
FLAG 304 -832 a0
IOPIN 304 -832 In
FLAG 304 -688 b0B
IOPIN 304 -688 In
FLAG -1104 160 Vdd
IOPIN -1104 160 In
FLAG -1104 208 Vdd
IOPIN -1104 208 In
FLAG -1152 304 a0
IOPIN -1152 304 In
FLAG -1104 304 a0B
IOPIN -1104 304 Out
FLAG -1104 384 0
FLAG -1104 432 0
FLAG -912 160 Vdd
IOPIN -912 160 In
FLAG -912 208 Vdd
IOPIN -912 208 In
FLAG -960 304 b0
IOPIN -960 304 In
FLAG -912 304 b0B
IOPIN -912 304 Out
FLAG -912 384 0
FLAG -912 432 0
FLAG -736 -176 0
FLAG -736 16 0
FLAG -816 -624 0
FLAG -736 -256 a0
IOPIN -736 -256 Out
FLAG -736 -64 b0
IOPIN -736 -64 Out
FLAG -816 -704 Vdd
IOPIN -816 -704 Out
FLAG 576 -1104 Vdd
IOPIN 576 -1104 In
FLAG 576 -1056 Vdd
IOPIN 576 -1056 In
FLAG 576 -880 0
FLAG 576 -832 0
FLAG 160 -1072 Vdd
IOPIN 160 -1072 In
FLAG 368 -496 Vdd
IOPIN 368 -496 In
FLAG 368 -448 Vdd
IOPIN 368 -448 In
FLAG 368 -272 0
FLAG 368 -224 0
FLAG 112 -512 Vdd
IOPIN 112 -512 In
FLAG 64 -240 a0
IOPIN 64 -240 In
FLAG 64 -96 b0
IOPIN 64 -96 In
FLAG -48 -432 a0
IOPIN -48 -432 In
FLAG 160 -432 b0
IOPIN 160 -432 In
FLAG 112 -272 0
FLAG 112 -128 0
FLAG 112 -80 0
FLAG 1008 -688 0
FLAG 1104 -736 0
FLAG 1104 -880 0
FLAG 912 -880 0
FLAG 912 -736 0
FLAG 1008 -1312 Vdd
IOPIN 1008 -1312 In
FLAG 1104 -1264 Vdd
IOPIN 1104 -1264 In
FLAG 1056 -1232 b1
IOPIN 1056 -1232 In
FLAG 912 -1264 Vdd
IOPIN 912 -1264 In
FLAG 864 -1232 a1B
IOPIN 864 -1232 In
FLAG 864 -1056 a1
IOPIN 864 -1056 In
FLAG 1056 -1056 b1B
IOPIN 1056 -1056 In
FLAG 1104 -1088 Vdd
IOPIN 1104 -1088 In
FLAG 864 -848 a1B
IOPIN 864 -848 In
FLAG 864 -704 b1
IOPIN 864 -704 In
FLAG 1056 -848 a1
IOPIN 1056 -848 In
FLAG 1056 -704 b1B
IOPIN 1056 -704 In
FLAG 1328 -1120 Vdd
IOPIN 1328 -1120 In
FLAG 1328 -1072 Vdd
IOPIN 1328 -1072 In
FLAG 1328 -896 0
FLAG 1328 -848 0
FLAG 912 -1088 Vdd
IOPIN 912 -1088 In
FLAG 496 -352 C
IOPIN 496 -352 Out
FLAG 1456 -976 o1
IOPIN 1456 -976 Out
FLAG 1168 -976 o1B
IOPIN 1168 -976 Out
FLAG 256 -352 cB
IOPIN 256 -352 Out
FLAG 1808 -688 0
FLAG 1904 -736 0
FLAG 1904 -880 0
FLAG 1712 -880 0
FLAG 1712 -736 0
FLAG 1808 -1312 Vdd
IOPIN 1808 -1312 In
FLAG 1904 -1264 Vdd
IOPIN 1904 -1264 In
FLAG 1856 -1232 c
IOPIN 1856 -1232 In
FLAG 1712 -1264 Vdd
IOPIN 1712 -1264 In
FLAG 1664 -1232 o1B
IOPIN 1664 -1232 In
FLAG 1664 -1056 o1
IOPIN 1664 -1056 In
FLAG 1856 -1056 cB
IOPIN 1856 -1056 In
FLAG 1904 -1088 Vdd
IOPIN 1904 -1088 In
FLAG 1664 -848 o1B
IOPIN 1664 -848 In
FLAG 1664 -704 c
IOPIN 1664 -704 In
FLAG 1856 -848 o1
IOPIN 1856 -848 In
FLAG 1856 -704 cB
IOPIN 1856 -704 In
FLAG 2128 -1120 Vdd
IOPIN 2128 -1120 In
FLAG 2128 -1072 Vdd
IOPIN 2128 -1072 In
FLAG 2128 -896 0
FLAG 2128 -848 0
FLAG 1712 -1088 Vdd
IOPIN 1712 -1088 In
FLAG -736 160 Vdd
IOPIN -736 160 In
FLAG -736 208 Vdd
IOPIN -736 208 In
FLAG -784 304 a1
IOPIN -784 304 In
FLAG -736 304 a1B
IOPIN -736 304 Out
FLAG -736 384 0
FLAG -736 432 0
FLAG -544 160 Vdd
IOPIN -544 160 In
FLAG -544 208 Vdd
IOPIN -544 208 In
FLAG -592 304 b1
IOPIN -592 304 In
FLAG -544 304 b1B
IOPIN -544 304 Out
FLAG -544 384 0
FLAG -544 432 0
FLAG -912 -176 0
FLAG -912 16 0
FLAG -912 -256 a1
IOPIN -912 -256 Out
FLAG -912 -64 b1
IOPIN -912 -64 Out
FLAG 976 -512 Vdd
IOPIN 976 -512 In
FLAG 976 -464 Vdd
IOPIN 976 -464 In
FLAG 976 -288 0
FLAG 976 -240 0
FLAG 720 -528 Vdd
IOPIN 720 -528 In
FLAG 672 -256 a1
IOPIN 672 -256 In
FLAG 672 -112 b1
IOPIN 672 -112 In
FLAG 560 -448 a1
IOPIN 560 -448 In
FLAG 768 -448 b1
IOPIN 768 -448 In
FLAG 720 -288 0
FLAG 720 -144 0
FLAG 720 -96 0
FLAG 1104 -368 o2
IOPIN 1104 -368 Out
FLAG 1680 -512 Vdd
IOPIN 1680 -512 In
FLAG 1680 -464 Vdd
IOPIN 1680 -464 In
FLAG 1680 -288 0
FLAG 1680 -240 0
FLAG 1424 -528 Vdd
IOPIN 1424 -528 In
FLAG 1376 -256 o1
IOPIN 1376 -256 In
FLAG 1376 -112 c
IOPIN 1376 -112 In
FLAG 1264 -448 o1
IOPIN 1264 -448 In
FLAG 1472 -448 c
IOPIN 1472 -448 In
FLAG 1424 -288 0
FLAG 1424 -144 0
FLAG 1424 -96 0
FLAG 1808 -368 o3
IOPIN 1808 -368 Out
FLAG 2128 -144 0
FLAG 2048 -192 0
FLAG 2240 -192 0
FLAG 2128 -560 Vdd
IOPIN 2128 -560 In
FLAG 2128 -512 Vdd
IOPIN 2128 -512 In
FLAG 2128 -384 Vdd
IOPIN 2128 -384 In
FLAG 2080 -480 o2
IOPIN 2080 -480 In
FLAG 2080 -352 o3
IOPIN 2080 -352 In
FLAG 2000 -160 o2
IOPIN 2000 -160 In
FLAG 2192 -160 o3
IOPIN 2192 -160 In
FLAG 2384 -416 Vdd
IOPIN 2384 -416 In
FLAG 2384 -368 Vdd
IOPIN 2384 -368 In
FLAG 2384 -192 0
FLAG 2384 -144 0
FLAG 368 192 Vdd
IOPIN 368 192 In
FLAG 368 240 Vdd
IOPIN 368 240 In
FLAG 368 416 0
FLAG 368 464 0
FLAG 112 176 Vdd
IOPIN 112 176 In
FLAG 64 448 a0B
IOPIN 64 448 In
FLAG 64 592 b0
IOPIN 64 592 In
FLAG -48 256 a0B
IOPIN -48 256 In
FLAG 160 256 b0
IOPIN 160 256 In
FLAG 112 416 0
FLAG 112 560 0
FLAG 112 608 0
FLAG 496 336 b
IOPIN 496 336 Out
FLAG 1104 176 Vdd
IOPIN 1104 176 In
FLAG 1104 224 Vdd
IOPIN 1104 224 In
FLAG 1104 400 0
FLAG 1104 448 0
FLAG 848 160 Vdd
IOPIN 848 160 In
FLAG 800 432 a1B
IOPIN 800 432 In
FLAG 800 576 b1
IOPIN 800 576 In
FLAG 688 240 a1B
IOPIN 688 240 In
FLAG 896 240 b1
IOPIN 896 240 In
FLAG 848 400 0
FLAG 848 544 0
FLAG 848 592 0
FLAG 1232 320 o4
IOPIN 1232 320 Out
FLAG 1888 176 Vdd
IOPIN 1888 176 In
FLAG 1888 224 Vdd
IOPIN 1888 224 In
FLAG 1888 400 0
FLAG 1888 448 0
FLAG 1632 160 Vdd
IOPIN 1632 160 In
FLAG 1584 432 o1B
IOPIN 1584 432 In
FLAG 1584 576 b
IOPIN 1584 576 In
FLAG 1472 240 o1B
IOPIN 1472 240 In
FLAG 1680 240 b
IOPIN 1680 240 In
FLAG 1632 400 0
FLAG 1632 544 0
FLAG 1632 592 0
FLAG 2016 320 o5
IOPIN 2016 320 Out
FLAG 2272 576 0
FLAG 2192 528 0
FLAG 2384 528 0
FLAG 2272 160 Vdd
IOPIN 2272 160 In
FLAG 2272 208 Vdd
IOPIN 2272 208 In
FLAG 2272 336 Vdd
IOPIN 2272 336 In
FLAG 2224 240 o4
IOPIN 2224 240 In
FLAG 2224 368 o5
IOPIN 2224 368 In
FLAG 2144 560 o4
IOPIN 2144 560 In
FLAG 2336 560 o5
IOPIN 2336 560 In
FLAG 2528 304 Vdd
IOPIN 2528 304 In
FLAG 2528 352 Vdd
IOPIN 2528 352 In
FLAG 2528 528 0
FLAG 2528 576 0
FLAG 1248 1328 0
FLAG 1344 1280 0
FLAG 1344 1136 0
FLAG 1152 1136 0
FLAG 1152 1280 0
FLAG 1248 704 Vdd
IOPIN 1248 704 In
FLAG 1344 752 Vdd
IOPIN 1344 752 In
FLAG 1296 784 b
IOPIN 1296 784 In
FLAG 1152 752 Vdd
IOPIN 1152 752 In
FLAG 1104 784 o1B
IOPIN 1104 784 In
FLAG 1104 960 o1
IOPIN 1104 960 In
FLAG 1296 960 bB
IOPIN 1296 960 In
FLAG 1344 928 Vdd
IOPIN 1344 928 In
FLAG 1104 1168 o1B
IOPIN 1104 1168 In
FLAG 1104 1312 b
IOPIN 1104 1312 In
FLAG 1296 1168 o1
IOPIN 1296 1168 In
FLAG 1296 1312 bB
IOPIN 1296 1312 In
FLAG 1568 896 Vdd
IOPIN 1568 896 In
FLAG 1568 944 Vdd
IOPIN 1568 944 In
FLAG 1568 1120 0
FLAG 1568 1168 0
FLAG 1152 928 Vdd
IOPIN 1152 928 In
FLAG 240 336 bB
IOPIN 240 336 Out
FLAG 3920 -800 0
FLAG 3840 -848 0
FLAG 4032 -848 0
FLAG 3920 -1216 Vdd
IOPIN 3920 -1216 In
FLAG 3920 -1168 Vdd
IOPIN 3920 -1168 In
FLAG 3920 -1040 Vdd
IOPIN 3920 -1040 In
FLAG 3872 -1136 o4
IOPIN 3872 -1136 In
FLAG 3872 -1008 o6
IOPIN 3872 -1008 In
FLAG 3792 -816 o4
IOPIN 3792 -816 In
FLAG 3984 -816 o6
IOPIN 3984 -816 In
FLAG 4176 -1072 Vdd
IOPIN 4176 -1072 In
FLAG 4176 -1024 Vdd
IOPIN 4176 -1024 In
FLAG 4176 -848 0
FLAG 4176 -800 0
FLAG 3680 -688 o6
IOPIN 3680 -688 Out
FLAG 3504 -832 Vdd
IOPIN 3504 -832 In
FLAG 3504 -784 Vdd
IOPIN 3504 -784 In
FLAG 3504 -608 0
FLAG 3504 -560 0
FLAG 3248 -848 Vdd
IOPIN 3248 -848 In
FLAG 3200 -576 o1B
IOPIN 3200 -576 In
FLAG 3200 -432 b
IOPIN 3200 -432 In
FLAG 3088 -768 o1B
IOPIN 3088 -768 In
FLAG 3296 -768 b
IOPIN 3296 -768 In
FLAG 3248 -608 0
FLAG 3248 -464 0
FLAG 3248 -416 0
FLAG 3344 -800 Vdd
IOPIN 3344 -800 In
FLAG 3136 -800 Vdd
IOPIN 3136 -800 In
FLAG 1520 -480 Vdd
IOPIN 1520 -480 In
FLAG 1312 -480 Vdd
IOPIN 1312 -480 In
FLAG 816 -480 Vdd
IOPIN 816 -480 In
FLAG 608 -480 Vdd
IOPIN 608 -480 In
FLAG 208 -464 Vdd
IOPIN 208 -464 In
FLAG 0 -464 Vdd
IOPIN 0 -464 In
FLAG 0 224 Vdd
IOPIN 0 224 In
FLAG 208 224 Vdd
IOPIN 208 224 In
FLAG 736 208 Vdd
IOPIN 736 208 In
FLAG 944 208 Vdd
IOPIN 944 208 In
FLAG 1520 208 Vdd
IOPIN 1520 208 In
FLAG 1728 208 Vdd
IOPIN 1728 208 In
FLAG 4176 -576 Vdd
IOPIN 4176 -576 In
FLAG 4176 -528 Vdd
IOPIN 4176 -528 In
FLAG 4176 -352 0
FLAG 4176 -304 0
FLAG 3920 -592 Vdd
IOPIN 3920 -592 In
FLAG 3872 -320 o1B
IOPIN 3872 -320 In
FLAG 3872 -176 o0B
IOPIN 3872 -176 In
FLAG 3760 -512 o1B
IOPIN 3760 -512 In
FLAG 3968 -512 o0B
IOPIN 3968 -512 In
FLAG 3920 -352 0
FLAG 3920 -208 0
FLAG 3920 -160 0
FLAG 4016 -544 Vdd
IOPIN 4016 -544 In
FLAG 3808 -544 Vdd
IOPIN 3808 -544 In
FLAG 400 -960 o0B
IOPIN 400 -960 Out
FLAG 3616 816 Vdd
IOPIN 3616 816 In
FLAG 3616 864 Vdd
IOPIN 3616 864 In
FLAG 3616 1040 0
FLAG 3616 1088 0
FLAG 3360 800 Vdd
IOPIN 3360 800 In
FLAG 3312 1072 a0
IOPIN 3312 1072 In
FLAG 3312 1216 b0B
IOPIN 3312 1216 In
FLAG 3200 880 a0
IOPIN 3200 880 In
FLAG 3408 880 b0B
IOPIN 3408 880 In
FLAG 3360 1040 0
FLAG 3360 1184 0
FLAG 3360 1232 0
FLAG 3744 960 o7
IOPIN 3744 960 Out
FLAG 4224 800 Vdd
IOPIN 4224 800 In
FLAG 4224 848 Vdd
IOPIN 4224 848 In
FLAG 4224 1024 0
FLAG 4224 1072 0
FLAG 3968 784 Vdd
IOPIN 3968 784 In
FLAG 3920 1056 a1
IOPIN 3920 1056 In
FLAG 3920 1200 b1B
IOPIN 3920 1200 In
FLAG 3808 864 a1
IOPIN 3808 864 In
FLAG 4016 864 b1B
IOPIN 4016 864 In
FLAG 3968 1024 0
FLAG 3968 1168 0
FLAG 3968 1216 0
FLAG 4352 944 o8
IOPIN 4352 944 Out
FLAG 4064 832 Vdd
IOPIN 4064 832 In
FLAG 3856 832 Vdd
IOPIN 3856 832 In
FLAG 3456 848 Vdd
IOPIN 3456 848 In
FLAG 3248 848 Vdd
IOPIN 3248 848 In
FLAG 3696 352 o9
IOPIN 3696 352 Out
FLAG 3520 208 Vdd
IOPIN 3520 208 In
FLAG 3520 256 Vdd
IOPIN 3520 256 In
FLAG 3520 432 0
FLAG 3520 480 0
FLAG 3264 192 Vdd
IOPIN 3264 192 In
FLAG 3216 464 o1B
IOPIN 3216 464 In
FLAG 3216 608 o7
IOPIN 3216 608 In
FLAG 3104 272 o1B
IOPIN 3104 272 In
FLAG 3312 272 o7
IOPIN 3312 272 In
FLAG 3264 432 0
FLAG 3264 576 0
FLAG 3264 624 0
FLAG 3360 240 Vdd
IOPIN 3360 240 In
FLAG 3152 240 Vdd
IOPIN 3152 240 In
FLAG 3888 512 0
FLAG 3808 464 0
FLAG 4000 464 0
FLAG 3888 96 Vdd
IOPIN 3888 96 In
FLAG 3888 144 Vdd
IOPIN 3888 144 In
FLAG 3888 272 Vdd
IOPIN 3888 272 In
FLAG 3840 176 o8
IOPIN 3840 176 In
FLAG 3840 304 o9
IOPIN 3840 304 In
FLAG 3760 496 o8
IOPIN 3760 496 In
FLAG 3952 496 o9
IOPIN 3952 496 In
FLAG 4144 240 Vdd
IOPIN 4144 240 In
FLAG 4144 288 Vdd
IOPIN 4144 288 In
FLAG 4144 464 0
FLAG 4144 512 0
FLAG 5328 -464 o10
IOPIN 5328 -464 Out
FLAG 5152 -608 Vdd
IOPIN 5152 -608 In
FLAG 5152 -560 Vdd
IOPIN 5152 -560 In
FLAG 5152 -384 0
FLAG 5152 -336 0
FLAG 4896 -624 Vdd
IOPIN 4896 -624 In
FLAG 4848 -352 a1
IOPIN 4848 -352 In
FLAG 4848 -208 b0
IOPIN 4848 -208 In
FLAG 4736 -544 a1
IOPIN 4736 -544 In
FLAG 4944 -544 b0
IOPIN 4944 -544 In
FLAG 4896 -384 0
FLAG 4896 -240 0
FLAG 4896 -192 0
FLAG 4992 -576 Vdd
IOPIN 4992 -576 In
FLAG 4784 -576 Vdd
IOPIN 4784 -576 In
FLAG 5344 208 o11
IOPIN 5344 208 Out
FLAG 5168 64 Vdd
IOPIN 5168 64 In
FLAG 5168 112 Vdd
IOPIN 5168 112 In
FLAG 5168 288 0
FLAG 5168 336 0
FLAG 4912 48 Vdd
IOPIN 4912 48 In
FLAG 4864 320 a0
IOPIN 4864 320 In
FLAG 4864 464 b1
IOPIN 4864 464 In
FLAG 4752 128 a0
IOPIN 4752 128 In
FLAG 4960 128 b1
IOPIN 4960 128 In
FLAG 4912 288 0
FLAG 4912 432 0
FLAG 4912 480 0
FLAG 5008 96 Vdd
IOPIN 5008 96 In
FLAG 4800 96 Vdd
IOPIN 4800 96 In
FLAG 5792 -192 0
FLAG 5888 -240 0
FLAG 5888 -384 0
FLAG 5696 -384 0
FLAG 5696 -240 0
FLAG 5792 -816 Vdd
IOPIN 5792 -816 In
FLAG 5888 -768 Vdd
IOPIN 5888 -768 In
FLAG 5840 -736 o11
IOPIN 5840 -736 In
FLAG 5696 -768 Vdd
IOPIN 5696 -768 In
FLAG 5648 -736 o10B
IOPIN 5648 -736 In
FLAG 5648 -560 o10
IOPIN 5648 -560 In
FLAG 5840 -560 o11B
IOPIN 5840 -560 In
FLAG 5888 -592 Vdd
IOPIN 5888 -592 In
FLAG 5648 -352 o10B
IOPIN 5648 -352 In
FLAG 5648 -208 o11
IOPIN 5648 -208 In
FLAG 5840 -352 o10
IOPIN 5840 -352 In
FLAG 5840 -208 o11B
IOPIN 5840 -208 In
FLAG 6112 -624 Vdd
IOPIN 6112 -624 In
FLAG 6112 -576 Vdd
IOPIN 6112 -576 In
FLAG 6112 -400 0
FLAG 6112 -352 0
FLAG 5696 -592 Vdd
IOPIN 5696 -592 In
FLAG 5040 880 o12B
IOPIN 5040 880 Out
FLAG 5360 880 o12
IOPIN 5360 880 Out
FLAG 5184 736 Vdd
IOPIN 5184 736 In
FLAG 5184 784 Vdd
IOPIN 5184 784 In
FLAG 5184 960 0
FLAG 5184 1008 0
FLAG 4928 720 Vdd
IOPIN 4928 720 In
FLAG 4880 992 o10
IOPIN 4880 992 In
FLAG 4880 1136 o11
IOPIN 4880 1136 In
FLAG 4768 800 o10
IOPIN 4768 800 In
FLAG 4976 800 o11
IOPIN 4976 800 In
FLAG 4928 960 0
FLAG 4928 1104 0
FLAG 4928 1152 0
FLAG 5024 768 Vdd
IOPIN 5024 768 In
FLAG 4816 768 Vdd
IOPIN 4816 768 In
FLAG 5808 576 0
FLAG 5904 528 0
FLAG 5904 384 0
FLAG 5712 384 0
FLAG 5712 528 0
FLAG 5808 -48 Vdd
IOPIN 5808 -48 In
FLAG 5904 0 Vdd
IOPIN 5904 0 In
FLAG 5856 32 o12
IOPIN 5856 32 In
FLAG 5712 0 Vdd
IOPIN 5712 0 In
FLAG 5664 32 o2B
IOPIN 5664 32 In
FLAG 5664 208 o2
IOPIN 5664 208 In
FLAG 5856 208 o12B
IOPIN 5856 208 In
FLAG 5904 176 Vdd
IOPIN 5904 176 In
FLAG 5664 416 o2B
IOPIN 5664 416 In
FLAG 5664 560 o12
IOPIN 5664 560 In
FLAG 5856 416 o2
IOPIN 5856 416 In
FLAG 5856 560 o12B
IOPIN 5856 560 In
FLAG 6128 144 Vdd
IOPIN 6128 144 In
FLAG 6128 192 Vdd
IOPIN 6128 192 In
FLAG 6128 368 0
FLAG 6128 416 0
FLAG 5712 176 Vdd
IOPIN 5712 176 In
FLAG 6080 864 Vdd
IOPIN 6080 864 In
FLAG 6080 912 Vdd
IOPIN 6080 912 In
FLAG 6080 1088 0
FLAG 6080 1136 0
FLAG 5824 848 Vdd
IOPIN 5824 848 In
FLAG 5776 1120 o2
IOPIN 5776 1120 In
FLAG 5776 1264 o12
IOPIN 5776 1264 In
FLAG 5664 928 o2
IOPIN 5664 928 In
FLAG 5872 928 o12
IOPIN 5872 928 In
FLAG 5824 1088 0
FLAG 5824 1232 0
FLAG 5824 1280 0
FLAG 5920 896 Vdd
IOPIN 5920 896 In
FLAG 5712 896 Vdd
IOPIN 5712 896 In
FLAG 5008 -464 o10B
IOPIN 5008 -464 Out
FLAG 5024 208 o11B
IOPIN 5024 208 Out
FLAG 832 -368 o2B
IOPIN 832 -368 Out
FLAG 6848 -160 0
FLAG 6848 -208 0
FLAG 6848 -368 0
FLAG 6848 -528 0
FLAG 6848 -768 Vdd
IOPIN 6848 -768 In
FLAG 6688 -720 Vdd
IOPIN 6688 -720 In
FLAG 6848 -720 Vdd
IOPIN 6848 -720 In
FLAG 7008 -720 Vdd
IOPIN 7008 -720 In
FLAG 6640 -688 S1
IOPIN 6640 -688 In
FLAG 6800 -688 S0
IOPIN 6800 -688 In
FLAG 6960 -688 I11
IOPIN 6960 -688 In
FLAG 6800 -496 S1
IOPIN 6800 -496 In
FLAG 6800 -336 S0
IOPIN 6800 -336 In
FLAG 6800 -176 I11
IOPIN 6800 -176 In
FLAG 7152 -752 Vdd
IOPIN 7152 -752 In
FLAG 7152 -704 Vdd
IOPIN 7152 -704 In
FLAG 7152 -528 0
FLAG 7152 -480 0
FLAG 7472 -384 0
FLAG 7472 -256 0
FLAG 7472 -128 0
FLAG 7760 -80 0
FLAG 7664 -128 0
FLAG 7664 -256 0
FLAG 7664 -384 0
FLAG 7872 -384 0
FLAG 7872 -256 0
FLAG 7872 -128 0
FLAG 8064 -384 0
FLAG 8064 -256 0
FLAG 8064 -128 0
FLAG 7600 -928 Vdd
IOPIN 7600 -928 In
FLAG 7760 -928 Vdd
IOPIN 7760 -928 In
FLAG 7920 -928 Vdd
IOPIN 7920 -928 In
FLAG 7600 -800 Vdd
IOPIN 7600 -800 In
FLAG 7760 -800 Vdd
IOPIN 7760 -800 In
FLAG 7920 -800 Vdd
IOPIN 7920 -800 In
FLAG 7920 -672 Vdd
IOPIN 7920 -672 In
FLAG 7760 -672 Vdd
IOPIN 7760 -672 In
FLAG 7600 -672 Vdd
IOPIN 7600 -672 In
FLAG 7600 -544 Vdd
IOPIN 7600 -544 In
FLAG 7760 -544 Vdd
IOPIN 7760 -544 In
FLAG 7920 -544 Vdd
IOPIN 7920 -544 In
FLAG 7424 -224 S0B
IOPIN 7424 -224 In
FLAG 7824 -224 S0B
IOPIN 7824 -224 In
FLAG 7712 -896 S0B
IOPIN 7712 -896 In
FLAG 7712 -640 S0B
IOPIN 7712 -640 In
FLAG 7616 -224 S0
IOPIN 7616 -224 In
FLAG 8016 -224 S0
IOPIN 8016 -224 In
FLAG 7712 -768 S0
IOPIN 7712 -768 In
FLAG 7712 -512 S0
IOPIN 7712 -512 In
FLAG 7424 -352 S1B
IOPIN 7424 -352 In
FLAG 7616 -352 S1B